example-pypsa/solved_network_RTS_GMLS_base+gen_and_line_expansion.m
%% MATPOWER Case Format : Version 2
function mpc = 
mpc.version = '2';

%%-----  Power Flow Data  -----%%
%% system MVA base
mpc.baseMVA = 100.0;
%% bus data
%    bus_i    type    Pd    Qd    Gs    Bs    area    Vm    Va    baseKV    zone    Vmax    Vmin
mpc.bus = [
	1	3	0.0	0.0	0.0	0.0	1	1.0468	0.0	138.0	1	1.05	0.95				
	2	2	0.0	0.0	0.0	0.0	1	1.0467	0.0	138.0	1	1.05	0.95				
	3	1	0.0	0.0	0.0	0.0	1	1.0	0.0	138.0	1	1.05	0.95				
	4	1	0.0	0.0	0.0	0.0	1	1.0	0.0	138.0	1	1.05	0.95				
	5	1	0.0	0.0	0.0	0.0	1	1.0	0.0	138.0	1	1.05	0.95				
	6	1	0.0	0.0	0.0	0.0	1	1.0	0.0	138.0	1	1.05	0.95				
	7	2	0.0	0.0	0.0	0.0	1	1.05	0.0	138.0	1	1.05	0.95				
	8	1	0.0	0.0	0.0	0.0	1	1.0	0.0	138.0	1	1.05	0.95				
	9	1	0.0	0.0	0.0	0.0	1	1.0	0.0	138.0	1	1.05	0.95				
	10	1	0.0	0.0	0.0	0.0	1	1.0	0.0	138.0	1	1.05	0.95				
	11	1	0.0	0.0	0.0	0.0	1	1.0	0.0	230.0	1	1.05	0.95				
	12	1	0.0	0.0	0.0	0.0	1	1.0	0.0	230.0	1	1.05	0.95				
	13	1	0.0	0.0	0.0	0.0	1	1.0347	0.0	230.0	1	1.05	0.95				
	14	1	0.0	0.0	0.0	0.0	1	1.0	0.0	230.0	1	1.05	0.95				
	15	2	0.0	0.0	0.0	0.0	1	1.0428	0.0	230.0	1	1.05	0.95				
	16	2	0.0	0.0	0.0	0.0	1	1.0461	0.0	230.0	1	1.05	0.95				
	17	1	0.0	0.0	0.0	0.0	1	1.0	0.0	230.0	1	1.05	0.95				
	18	2	0.0	0.0	0.0	0.0	1	1.05	0.0	230.0	1	1.05	0.95				
	19	1	0.0	0.0	0.0	0.0	1	1.0	0.0	230.0	1	1.05	0.95				
	20	1	0.0	0.0	0.0	0.0	1	1.0	0.0	230.0	1	1.05	0.95				
	21	2	0.0	0.0	0.0	0.0	1	1.05	0.0	230.0	1	1.05	0.95				
	22	2	0.0	0.0	0.0	0.0	1	1.05	0.0	230.0	1	1.05	0.95				
	23	2	0.0	0.0	0.0	0.0	1	1.05	0.0	230.0	1	1.05	0.95				
	24	1	0.0	0.0	0.0	0.0	1	1.0	0.0	230.0	1	1.05	0.95				
	25	2	0.0	0.0	0.0	0.0	1	1.05	0.0	138.0	1	1.05	0.95				
	26	2	0.0	0.0	0.0	0.0	1	1.05	0.0	138.0	1	1.05	0.95				
	27	1	0.0	0.0	0.0	0.0	1	1.0	0.0	138.0	1	1.05	0.95				
	28	1	0.0	0.0	0.0	0.0	1	1.0	0.0	138.0	1	1.05	0.95				
	29	1	0.0	0.0	0.0	0.0	1	1.0	0.0	138.0	1	1.05	0.95				
	30	1	0.0	0.0	0.0	0.0	1	1.0	0.0	138.0	1	1.05	0.95				
	31	2	0.0	0.0	0.0	0.0	1	0.9699	0.0	138.0	1	1.05	0.95				
	32	1	0.0	0.0	0.0	0.0	1	1.0	0.0	138.0	1	1.05	0.95				
	33	1	0.0	0.0	0.0	0.0	1	1.0	0.0	138.0	1	1.05	0.95				
	34	1	0.0	0.0	0.0	0.0	1	1.0	0.0	138.0	1	1.05	0.95				
	35	1	0.0	0.0	0.0	0.0	1	1.0	0.0	230.0	1	1.05	0.95				
	36	1	0.0	0.0	0.0	0.0	1	1.0	0.0	230.0	1	1.05	0.95				
	37	2	0.0	0.0	0.0	0.0	1	1.05	0.0	230.0	1	1.05	0.95				
	38	1	0.0	0.0	0.0	0.0	1	1.0	0.0	230.0	1	1.05	0.95				
	39	2	0.0	0.0	0.0	0.0	1	1.0437	0.0	230.0	1	1.05	0.95				
	40	2	0.0	0.0	0.0	0.0	1	1.0473	0.0	230.0	1	1.05	0.95				
	41	1	0.0	0.0	0.0	0.0	1	1.0	0.0	230.0	1	1.05	0.95				
	42	2	0.0	0.0	0.0	0.0	1	1.05	0.0	230.0	1	1.05	0.95				
	43	1	0.0	0.0	0.0	0.0	1	1.0	0.0	230.0	1	1.05	0.95				
	44	1	0.0	0.0	0.0	0.0	1	1.0	0.0	230.0	1	1.05	0.95				
	45	2	0.0	0.0	0.0	0.0	1	1.05	0.0	230.0	1	1.05	0.95				
	46	2	0.0	0.0	0.0	0.0	1	1.05	0.0	230.0	1	1.05	0.95				
	47	2	0.0	0.0	0.0	0.0	1	1.05	0.0	230.0	1	1.05	0.95				
	48	1	0.0	0.0	0.0	0.0	1	1.0	0.0	230.0	1	1.05	0.95				
	49	2	0.0	0.0	0.0	0.0	1	1.05	0.0	138.0	1	1.05	0.95				
	50	2	0.0	0.0	0.0	0.0	1	1.05	0.0	138.0	1	1.05	0.95				
	51	1	0.0	0.0	0.0	0.0	1	1.0	0.0	138.0	1	1.05	0.95				
	52	1	0.0	0.0	0.0	0.0	1	1.0	0.0	138.0	1	1.05	0.95				
	53	1	0.0	0.0	0.0	0.0	1	1.0	0.0	138.0	1	1.05	0.95				
	54	1	0.0	0.0	0.0	0.0	1	1.0	0.0	138.0	1	1.05	0.95				
	55	2	0.0	0.0	0.0	0.0	1	0.9568	0.0	138.0	1	1.05	0.95				
	56	1	0.0	0.0	0.0	0.0	1	1.0	0.0	138.0	1	1.05	0.95				
	57	1	0.0	0.0	0.0	0.0	1	1.0	0.0	138.0	1	1.05	0.95				
	58	1	0.0	0.0	0.0	0.0	1	1.0	0.0	138.0	1	1.05	0.95				
	59	1	0.0	0.0	0.0	0.0	1	1.0	0.0	230.0	1	1.05	0.95				
	60	1	0.0	0.0	0.0	0.0	1	1.0	0.0	230.0	1	1.05	0.95				
	61	2	0.0	0.0	0.0	0.0	1	1.035	0.0	230.0	1	1.05	0.95				
	62	1	0.0	0.0	0.0	0.0	1	1.0	0.0	230.0	1	1.05	0.95				
	63	2	0.0	0.0	0.0	0.0	1	1.0422	0.0	230.0	1	1.05	0.95				
	64	2	0.0	0.0	0.0	0.0	1	1.0449	0.0	230.0	1	1.05	0.95				
	65	1	0.0	0.0	0.0	0.0	1	1.0	0.0	230.0	1	1.05	0.95				
	66	2	0.0	0.0	0.0	0.0	1	1.05	0.0	230.0	1	1.05	0.95				
	67	1	0.0	0.0	0.0	0.0	1	1.0	0.0	230.0	1	1.05	0.95				
	68	1	0.0	0.0	0.0	0.0	1	1.0	0.0	230.0	1	1.05	0.95				
	69	2	0.0	0.0	0.0	0.0	1	1.05	0.0	230.0	1	1.05	0.95				
	70	2	0.0	0.0	0.0	0.0	1	1.05	0.0	230.0	1	1.05	0.95				
	71	2	0.0	0.0	0.0	0.0	1	1.05	0.0	230.0	1	1.05	0.95				
	72	1	0.0	0.0	0.0	0.0	1	1.0	0.0	230.0	1	1.05	0.95				
	73	1	0.0	0.0	0.0	0.0	1	1.0	0.0	230.0	1	1.05	0.95				
];

%% generator data
%    bus    Pg    Qg    Qmax    Qmin    Vg    mBase    status    Pmax    Pmin    Pc1    Pc2    Qc1min    Qc1max    Qc2min    Qc2max    ramp_agc    ramp_10    ramp_30    ramp_q    apf
mpc.gen = [
	31	0.0	-18.9999391	91.25379831465338	0.0	0.9699	91.25379831465338	1	91.25379831465338	0.0								91.25379831465338							
	13	0.0	-19.017851	143.23092095344944	0.0	1.0347	143.23092095344944	1	143.23092095344944	0.0								143.23092095344944							
	55	0.0	-18.9887536	91.39783422526739	0.0	0.9568	91.39783422526739	1	91.39783422526739	0.0								91.39783422526739							
	50	0.0	-9.84315047	68.53904932737692	0.0	1.05	68.53904932737692	1	68.53904932737692	0.0								68.53904932737692							
	16	0.0	0.0	358.3519226752802	0.0	1.0461	358.3519226752802	1	358.3519226752802	0.0								358.3519226752802							
	47	0.0	8.68064867	150.43724270133853	0.0	1.05	150.43724270133853	1	150.43724270133853	0.0								150.43724270133853							
	1	0.0	-0.671255588	60.46922639607226	0.0	1.0468	60.469226396072266	1	60.46922639607226	0.0								60.46922639607226							
	15	0.0	-80.1844323	88.67053210665932	0.0	1.0428	88.67053210665932	1	88.67053210665932	0.0								88.67053210665932							
	70	0.0	9.063161649999998	0.017415861585525376	0.0	1.05	0.017415861585525376	1	0.017415861585525376	0.0								0.017415861585525376							
	69	0.0	0.0	0.0024333384758862876	0.0	1.05	0.0024333384758862876	1	0.0024333384758862876	0.0								0.0024333384758862876							
	50	0.0	-9.84315047	68.53904932737692	0.0	1.05	68.53904932737692	1	68.53904932737692	0.0								68.53904932737692							
	40	0.0	0.0	658.3860011626642	0.0	1.0473	658.3860011626642	1	658.3860011626642	0.0								658.3860011626642							
	42	0.0	0.0	0.002735538366102651	0.0	1.05	0.002735538366102651	1	0.002735538366102651	0.0								0.002735538366102651							
	37	0.0	0.0	0.0026526360898029124	0.0	1.05	0.0026526360898029124	1	0.0026526360898029124	0.0								0.0026526360898029124							
	63	0.0	-19.166787300000003	46.94260005585391	0.0	1.0422	46.94260005585391	1	46.94260005585391	0.0								46.94260005585391							
	45	0.0	0.0	0.002617667941701019	0.0	1.05	0.002617667941701019	1	0.002617667941701019	0.0								0.002617667941701019							
	47	0.0	4.19340042	35.668050547696474	0.0	1.05	35.668050547696474	1	35.668050547696474	0.0								35.668050547696474							
	37	0.0	-14.277477	33.02643963235261	0.0	1.05	33.02643963235261	1	33.02643963235261	0.0								33.02643963235261							
	71	0.0	0.0	0.0015238003436994284	0.0	1.05	0.0015238003436994284	1	0.0015238003436994284	0.0								0.0015238003436994284							
	23	0.0	0.0	92.78673887701302	0.0	1.05	92.78673887701302	1	92.78673887701302	0.0								92.78673887701302							
	25	0.0	-5.89472017	170.25031122052886	0.0	1.05	170.25031122052886	1	170.25031122052886	0.0								170.25031122052886							
	23	0.0	2.88129942	16.438464901463586	0.0	1.05	16.438464901463586	1	16.438464901463586	0.0								16.438464901463586							
	61	0.0	0.0	0.004078907068984583	0.0	1.035	0.004078907068984583	1	0.004078907068984583	0.0								0.004078907068984583							
	23	0.0	2.88129942	16.438464901463586	0.0	1.05	16.438464901463586	1	16.438464901463586	0.0								16.438464901463586							
	2	0.0	1.87503324	84.0936890147711	0.0	1.0467	84.0936890147711	1	84.0936890147711	0.0								84.0936890147711							
	63	0.0	-60.2943306	46.94260005585391	0.0	1.0422	46.94260005585391	1	46.94260005585391	0.0								46.94260005585391							
	2	0.0	1.87503324	84.0936890147711	0.0	1.0467	84.0936890147711	1	84.0936890147711	0.0								84.0936890147711							
	71	0.0	-37.4633096	0.0015238003436994284	0.0	1.05	0.0015238003436994284	1	0.0015238003436994284	0.0								0.0015238003436994284							
	13	0.0	-19.017851	143.23092095344944	0.0	1.0347	143.23092095344944	1	143.23092095344944	0.0								143.23092095344944							
	21	0.0	0.0	400.0	0.0	1.05	400.0	1	400.0	0.0								400.0							
	47	0.0	4.19340042	35.668050547696474	0.0	1.05	35.668050547696474	1	35.668050547696474	0.0								35.668050547696474							
	70	0.0	0.0	0.017415861585525376	0.0	1.05	0.017415861585525376	1	0.017415861585525376	0.0								0.017415861585525376							
	47	0.0	0.0	150.43724270133853	0.0	1.05	150.43724270133853	1	150.43724270133853	0.0								150.43724270133853							
	13	0.0	-19.017851	143.23092095344944	0.0	1.0347	143.23092095344944	1	143.23092095344944	0.0								143.23092095344944							
	47	0.0	-30.6222037	150.43724270133853	0.0	1.05	150.43724270133853	1	150.43724270133853	0.0								150.43724270133853							
	55	0.0	0.0	91.39783422526739	0.0	0.9568	91.39783422526739	1	91.39783422526739	0.0								91.39783422526739							
	49	0.0	-15.51166	86.57508363457407	0.0	1.05	86.57508363457407	1	86.57508363457407	0.0								86.57508363457407							
	31	0.0	0.0	91.25379831465338	0.0	0.9699	91.25379831465338	1	91.25379831465338	0.0								91.25379831465338							
	7	0.0	0.0	0.004121255363078874	0.0	1.05	0.004121255363078874	1	0.004121255363078874	0.0								0.004121255363078874							
	37	0.0	-14.277477	33.02643963235261	0.0	1.05	33.02643963235261	1	33.02643963235261	0.0								33.02643963235261							
	23	0.0	-37.3756648	92.78673887701302	0.0	1.05	92.78673887701302	1	92.78673887701302	0.0								92.78673887701302							
	39	0.0	0.0	138.76836674608413	0.0	1.0437	138.76836674608413	1	138.76836674608413	0.0								138.76836674608413							
	49	0.0	-15.51166	86.57508363457407	0.0	1.05	86.57508363457407	1	86.57508363457407	0.0								86.57508363457407							
	23	0.0	2.88129942	16.438464901463586	0.0	1.05	16.438464901463586	1	16.438464901463586	0.0								16.438464901463586							
	26	0.0	-2.19561568	103.09280040393858	0.0	1.05	103.09280040393858	1	103.09280040393858	0.0								103.09280040393858							
	66	0.0	0.0	0.002527012308490258	0.0	1.05	0.002527012308490258	1	0.002527012308490258	0.0								0.002527012308490258							
	39	0.0	-19.0702274	138.76836674608413	0.0	1.0437	138.76836674608413	1	138.76836674608413	0.0								138.76836674608413							
	26	0.0	-2.19561568	103.09280040393858	0.0	1.05	103.09280040393858	1	103.09280040393858	0.0								103.09280040393858							
	63	0.0	-19.166787300000003	46.94260005585391	0.0	1.0422	46.94260005585391	1	46.94260005585391	0.0								46.94260005585391							
	18	0.0	0.0	0.0028184089937859994	0.0	1.05	0.0028184089937859994	1	0.0028184089937859994	0.0								0.0028184089937859994							
	1	0.0	-0.671255588	60.46922639607226	0.0	1.0468	60.469226396072266	1	60.46922639607226	0.0								60.46922639607226							
	47	0.0	4.19340042	35.668050547696474	0.0	1.05	35.668050547696474	1	35.668050547696474	0.0								35.668050547696474							
	64	0.0	0.0	728.3196997400814	0.0	1.0449	728.3196997400814	1	728.3196997400814	0.0								728.3196997400814							
	46	0.0	6.97303251	50.0	0.0	1.05	50.0	1	50.0	0.0								50.0							
	70	0.0	5.46006479	50.0	0.0	1.05	50.0	1	50.0	0.0								50.0							
	46	0.0	6.97303251	50.0	0.0	1.05	50.0	1	50.0	0.0								50.0							
	22	0.0	0.0	50.0	0.0	1.05	50.0	1	50.0	0.0								50.0							
	22	0.0	6.79350178	50.0	0.0	1.05	50.0	1	50.0	0.0								50.0							
	22	0.0	6.79350178	50.0	0.0	1.05	50.0	1	50.0	0.0								50.0							
	46	0.0	6.97303251	50.0	0.0	1.05	50.0	1	50.0	0.0								50.0							
	46	0.0	6.97303251	50.0	0.0	1.05	50.0	1	50.0	0.0								50.0							
	70	0.0	5.46006479	50.0	0.0	1.05	50.0	1	50.0	0.0								50.0							
	25	0.0	-4.60477681	50.0	0.0	1.05	50.0	1	50.0	0.0								50.0							
	39	0.0	-16.0537033	50.0	0.0	1.0437	50.0	1	50.0	0.0								50.0							
	22	0.0	6.79350178	50.0	0.0	1.05	50.0	1	50.0	0.0								50.0							
	22	0.0	6.79350178	50.0	0.0	1.05	50.0	1	50.0	0.0								50.0							
	70	0.0	5.46006479	50.0	0.0	1.05	50.0	1	50.0	0.0								50.0							
	39	0.0	-16.0537033	50.0	0.0	1.0437	50.0	1	50.0	0.0								50.0							
	22	0.0	6.79350178	50.0	0.0	1.05	50.0	1	50.0	0.0								50.0							
	46	0.0	6.97303251	50.0	0.0	1.05	50.0	1	50.0	0.0								50.0							
	39	0.0	-16.0537033	50.0	0.0	1.0437	50.0	1	50.0	0.0								50.0							
	70	0.0	5.46006479	50.0	0.0	1.05	50.0	1	50.0	0.0								50.0							
	46	0.0	0.0	50.0	0.0	1.05	50.0	1	50.0	0.0								50.0							
	1	0.0	-0.0	0.02675643816658135	0.0	1.0468	0.02675643816658135	1	0.03783931773597646	0.0															
	68	0.0	-0.0	0.0012689651183275567	0.0	1.0	0.0012689651183275567	1	0.0017945876805172103	0.0															
	3	0.0	-0.0	0.002431112627760029	0.0	1.0	0.002431112627760029	1	0.003438112449834727	0.0															
	62	0.0	-0.0	707.372889301721	0.0	1.0	707.372889301721	1	1000.3763337055359	0.0															
	51	0.0	-0.0	0.0015115426801482093	0.0	1.0	0.0015115426801482093	1	0.002137644158371375	0.0															
	60	0.0	-0.0	0.004258162559755723	0.0	1.0	0.004258162559755723	1	0.006021951242795878	0.0															
	61	0.0	-0.0	0.0014439641977058268	0.0	1.035	0.0014439641977058268	1	0.0020420737519767657	0.0															
	68	0.0	-0.0	0.0012806874681277863	0.0	1.0	0.0012806874681277863	1	0.0018111655865875763	0.0															
	72	0.0	-0.0	0.23614689664170674	0.0	1.0	0.2361468966417067	1	0.33396214394301915	0.0															
	61	0.0	-0.0	0.0037340773276310748	0.0	1.035	0.0037340773276310743	1	0.005280782799685749	0.0															
	18	0.0	-0.0	0.0013544863735289198	0.0	1.05	0.0013544863735289198	1	0.0019155329994941484	0.0															
	18	0.0	-0.0	0.0013767923450901131	0.0	1.05	0.0013767923450901131	1	0.0019470784069978964	0.0															
	1	0.0	-0.0	0.028947180576194817	0.0	1.0468	0.02894718057619482	1	0.040937495363317734	0.0															
	61	0.0	-0.0	0.001546578092521721	0.0	1.035	0.001546578092521721	1	0.0021871917137133295	0.0															
	18	0.0	-0.0	0.0012353585045848463	0.0	1.05	0.0012353585045848463	1	0.001747060751576835	0.0															
	61	0.0	-0.0	0.0012894350043932813	0.0	1.035	0.0012894350043932813	1	0.00182353647101159	0.0															
	61	0.0	-0.0	0.004082731883668894	0.0	1.035	0.004082731883668894	1	0.005773854801417604	0.0															
	61	0.0	-0.0	0.0016722714828695357	0.0	1.035	0.0016722714828695357	1	0.0023649490110438645	0.0															
	1	0.0	-0.0	44.34847760883835	0.0	1.0468	44.34847760883835	1	62.71821850501873	0.0															
	18	0.0	-0.0	0.0012673326868886167	0.0	1.05	0.0012673326868886167	1	0.0017922790738366169	0.0															
	2	0.0	-0.0	60.716795377191715	0.0	1.0467	60.716795377191715	1	85.86651548625656	0.0															
	13	0.0	-0.0	842.4363518953508	0.0	1.0347	842.4363518953508	1	1191.3849142865183	0.0															
	61	0.0	-0.0	0.0015410263031438868	0.0	1.035	0.0015410263031438868	1	0.002179340297879757	0.0															
	68	0.0	-0.0	0.0012659596529947521	0.0	1.0	0.0012659596529947521	1	0.001790337310682316	0.0															
	4	0.0	-0.0	82.22931610553927	0.0	1.0	82.22931610553927	1	116.28981406111802	0.0															
	37	0.0	-0.0	0.0015552935391067925	0.0	1.05	0.0015552935391067928	1	0.002199517216476076	0.0															
	61	0.0	-0.0	0.0013516924058286207	0.0	1.035	0.0013516924058286207	1	0.0019115817324795532	0.0															
	39	0.0	-0.0	578.7732335076655	0.0	1.0437	578.7732335076655	1	818.508956365071	0.0															
	18	0.0	-0.0	0.0019094134674903635	0.0	1.05	0.0019094134674903635	1	0.002700318421902711	0.0															
	61	0.0	-0.0	0.0032294640935147073	0.0	1.035	0.0032294640935147073	1	0.004567151920245432	0.0															
	2	0.0	-0.0	0.05674710515366746	0.0	1.0467	0.05674710515366746	1	0.0802525257337287	0.0															
	18	0.0	-0.0	0.0013538724977822977	0.0	1.05	0.0013538724977822977	1	0.0019146648480876636	0.0															
	65	0.0	-0.0	0.002222583417067615	0.0	1.0	0.002222583417067615	1	0.003143207611922558	0.0															
	18	0.0	-0.0	0.0013694498693332616	0.0	1.05	0.0013694498693332616	1	0.0019366945782011613	0.0															
	61	0.0	-0.0	0.0017026012071275237	0.0	1.035	0.0017026012071275237	1	0.0024078417184325474	0.0															
	19	0.0	-0.0	0.0030133469028581156	0.0	1.0	0.0030133469028581156	1	0.004261516058156909	0.0															
	18	0.0	-0.0	0.0013539587486965528	0.0	1.05	0.0013539587486965528	1	0.0019147868253003703	0.0															
	61	0.0	-0.0	0.002910355811994436	0.0	1.035	0.002910355811994436	1	0.004115864660653893	0.0															
	67	0.0	-0.0	163.2712537984142	0.0	1.0	163.2712537984142	1	230.90042146737707	0.0															
	62	0.0	-0.0	0.0034113491823012563	0.0	1.0	0.0034113491823012563	1	0.004824376279600805	0.0															
	56	0.0	-0.0	0.0013676778339837953	0.0	1.0	0.0013676778339837953	1	0.0019341885417769418	0.0															
	61	0.0	-0.0	0.0013791124454734767	0.0	1.035	0.0013791124454734767	1	0.0019503595244261165	0.0															
	72	0.0	-0.0	210.02491707634286	0.0	1.0	210.02491707634286	1	297.0200861656487	0.0															
	61	0.0	-0.0	0.0032057092987963927	0.0	1.035	0.0032057092987963927	1	0.004533557567383403	0.0															
	61	0.0	-0.0	0.0013812813366947323	0.0	1.035	0.0013812813366947323	1	0.0019534267998065277	0.0															
	58	0.0	-0.0	697.3102184820216	0.0	1.0	697.3102184820216	1	986.1455681586211	0.0															
	68	0.0	-0.0	0.0012628296406413104	0.0	1.0	0.0012628296406413104	1	0.0017859108047616832	0.0															
	58	0.0	-0.0	0.013933487500443235	0.0	1.0	0.013933487500443235	1	0.019704926994282817	0.0															
	18	0.0	-0.0	0.0012772701894817194	0.0	1.05	0.0012772701894817194	1	0.0018063328247799007	0.0															
	62	0.0	-0.0	88.55249846976935	0.0	1.0	88.55249846976935	1	125.23214431797057	0.0															
	72	0.0	-0.0	3.6217744256989737	0.0	1.0	3.6217744256989737	1	5.1219625126795165	0.0															
	61	0.0	-0.0	0.002080296303413755	0.0	1.035	0.002080296303413755	1	0.002941983246042348	0.0															
	62	0.0	-0.0	0.6186132379685247	0.0	1.0	0.6186132379685247	1	0.8748512309986226	0.0															
	18	0.0	-0.0	0.0012914607395304416	0.0	1.05	0.0012914607395304416	1	0.0018264012931163377	0.0															
	1	0.0	-0.0	111.20559042495215	0.0	1.0468	111.20559042495215	1	157.26845419067496	0.0															
	57	0.0	-0.0	0.0013252176146594345	0.0	1.0	0.0013252176146594345	1	0.0018741407237470944	0.0															
	68	0.0	-0.0	0.0012808739801708534	0.0	1.0	0.0012808739801708534	1	0.0018114293544484279	0.0															
	68	0.0	-0.0	720.0713218743581	0.0	1.0	720.0713218743581	1	1018.3346292706397	0.0															
	68	0.0	-0.0	0.0012468761158619555	0.0	1.0	0.0012468761158619555	1	0.0017633491136510645	0.0															
	22	0.0	-0.0	0.003225506964370025	0.0	1.05	0.003225506964370025	1	0.004561555694540961	0.0															
];

%% branch data
%    f_bus    t_bus    r    x    b    rateA    rateB    rateC    ratio    angle    status    angmin    angmax
mpc.branch = [
	67	68	2.645	21.16	0.0001568998109640832	288.6751345948129	288.6751345948129	288.6751345948129	0	0	1.0	-89.99963750135457	89.99963750135457								
	12	13	3.174	25.392	0.0001890359168241966	288.6751345948129	288.6751345948129	288.6751345948129	0	0	1.0	-89.99963750135457	89.99963750135457								
	1	3	10.4742	40.18284	0.00029930686830497794	101.03629710818451	101.03629710818451	101.03629710818451	0	0	1.0	-89.99963750135457	89.99963750135457								
	31	32	3.04704	11.61684	8.926696072253729e-5	101.03629710818451	101.03629710818451	101.03629710818451	0	0	1.0	-89.99963750135457	89.99963750135457								
	63	69	3.174	25.921	0.00019470699432892253	288.6751345948129	288.6751345948129	288.6751345948129	0	0	1.0	-89.99963750135457	89.99963750135457								
	4	9	5.14188	19.80576	0.00014702793530770847	101.03629710818451	101.03629710818451	101.03629710818451	0	0	1.0	-89.99963750135457	89.99963750135457								
	62	64	2.645	31.211	0.00015500945179584122	288.6751345948129	288.6751345948129	288.6751345948129	0	0	1.0	-89.99963750135457	89.99963750135457								
	8	9	8.18892	31.422600000000003	0.00023629489603024578	101.03629710818451	101.03629710818451	101.03629710818451	0	0	1.0	-89.99963750135457	89.99963750135457								
	5	10	4.38012	16.75872	0.00012602394454946442	101.03629710818451	101.03629710818451	101.03629710818451	0	0	1.0	-89.99963750135457	89.99963750135457								
	15	21	3.174	25.921	0.00019470699432892253	288.6751345948129	288.6751345948129	288.6751345948129	0	0	1.0	-89.99963750135457	89.99963750135457								
	39	45	3.174	25.921	0.00019470699432892253	288.6751345948129	288.6751345948129	288.6751345948129	0	0	1.0	-89.99963750135457	89.99963750135457								
	71	73	1.0	4.760999999999999	0.000147	416.8468943549098	416.8468943549098	416.8468943549098	0	0	1.0	-89.99963750135457	89.99963750135457								
	32	34	8.18892	31.422600000000003	0.00023629489603024578	101.03629710818451	101.03629710818451	101.03629710818451	0	0	1.0	-89.99963750135457	89.99963750135457								
	52	57	5.14188	19.80576	0.00014702793530770847	101.03629710818451	101.03629710818451	101.03629710818451	0	0	1.0	-89.99963750135457	89.99963750135457								
	25	27	10.4742	40.18284	0.00029930686830497794	101.03629710818451	101.03629710818451	101.03629710818451	0	0	1.0	-89.99963750135457	89.99963750135457								
	16	19	1.587	12.167	9.262759924385635e-5	288.6751345948129	288.6751345948129	288.6751345948129	0	0	1.0	-89.99963750135457	89.99963750135457								
	18	21	1.587	13.754	0.00010396975425330812	288.6751345948129	288.6751345948129	288.6751345948129	0	0	1.0	-89.99963750135457	89.99963750135457								
	44	47	1.587	11.638	8.695652173913041e-5	288.6751345948129	288.6751345948129	288.6751345948129	0	0	1.0	-89.99963750135457	89.99963750135457								
	56	58	8.18892	31.422600000000003	0.00023629489603024578	101.03629710818451	101.03629710818451	101.03629710818451	0	0	1.0	-89.99963750135457	89.99963750135457								
	43	44	2.645	21.16	0.0001568998109640832	288.6751345948129	288.6751345948129	288.6751345948129	0	0	1.0	-89.99963750135457	89.99963750135457								
	53	58	4.38012	16.75872	0.00012602394454946442	101.03629710818451	101.03629710818451	101.03629710818451	0	0	1.0	-89.99963750135457	89.99963750135457								
	27	33	5.90364	22.66236	0.00016803192606595254	101.03629710818451	101.03629710818451	101.03629710818451	0	0	1.0	-89.99963750135457	89.99963750135457								
	59	62	2.645	22.218	0.00016635160680529302	288.6751345948129	288.6751345948129	288.6751345948129	0	0	1.0	-89.99963750135457	89.99963750135457								
	28	33	5.14188	19.80576	0.00014702793530770847	101.03629710818451	101.03629710818451	101.03629710818451	0	0	1.0	-89.99963750135457	89.99963750135457								
	2	4	6.2845200000000006	24.18588	0.00017853392144507457	101.03629710818451	101.03629710818451	101.03629710818451	0	0	1.0	-89.99963750135457	89.99963750135457								
	40	41	1.587	13.754	0.00010396975425330812	288.6751345948129	288.6751345948129	288.6751345948129	0	0	1.0	-89.99963750135457	89.99963750135457								
	42	45	1.587	13.754	0.00010396975425330812	288.6751345948129	288.6751345948129	288.6751345948129	0	0	1.0	-89.99963750135457	89.99963750135457								
	26	28	6.2845200000000006	24.18588	0.00017853392144507457	101.03629710818451	101.03629710818451	101.03629710818451	0	0	1.0	-89.99963750135457	89.99963750135457								
	73	21	6.348	51.313	0.00038374291115311906	288.6751345948129	288.6751345948129	288.6751345948129	0	0	1.0	-89.99963750135457	89.99963750135457								
	30	34	2.66616	11.61684	0.01291220331863054	101.03629710818451	101.03629710818451	101.03629710818451	0	0	1.0	-89.99963750135457	89.99963750135457								
	51	57	5.90364	22.66236	0.00016803192606595254	101.03629710818451	101.03629710818451	101.03629710818451	0	0	1.0	-89.99963750135457	89.99963750135457								
	68	71	1.587	11.638	8.695652173913041e-5	288.6751345948129	288.6751345948129	288.6751345948129	0	0	1.0	-89.99963750135457	89.99963750135457								
	11	14	2.645	22.218	0.00016635160680529302	288.6751345948129	288.6751345948129	288.6751345948129	0	0	1.0	-89.99963750135457	89.99963750135457								
	15	16	1.058	8.993	6.805293005671077e-5	288.6751345948129	288.6751345948129	288.6751345948129	0	0	1.0	-89.99963750135457	89.99963750135457								
	63	72	3.7030000000000003	27.508	0.00020604914933837433	288.6751345948129	288.6751345948129	288.6751345948129	0	0	1.0	-89.99963750135457	89.99963750135457								
	1	5	4.18968	16.1874	0.00012077294685990338	101.03629710818451	101.03629710818451	101.03629710818451	0	0	1.0	-89.99963750135457	89.99963750135457								
	50	54	9.522	36.56448	0.0002730518798571728	101.03629710818451	101.03629710818451	101.03629710818451	0	0	1.0	-89.99963750135457	89.99963750135457								
	63	64	1.058	8.993	6.805293005671077e-5	288.6751345948129	288.6751345948129	288.6751345948129	0	0	1.0	-89.99963750135457	89.99963750135457								
	37	47	5.819	46.022999999999996	0.0003440453686200378	288.6751345948129	288.6751345948129	288.6751345948129	0	0	1.0	-89.99963750135457	89.99963750135457								
	64	65	1.587	13.754	0.00010396975425330812	288.6751345948129	288.6751345948129	288.6751345948129	0	0	1.0	-89.99963750135457	89.99963750135457								
	32	33	8.18892	31.422600000000003	0.00023629489603024578	101.03629710818451	101.03629710818451	101.03629710818451	0	0	1.0	-89.99963750135457	89.99963750135457								
	19	20	2.645	21.16	0.0001568998109640832	288.6751345948129	288.6751345948129	288.6751345948129	0	0	1.0	-89.99963750135457	89.99963750135457								
	21	22	4.760999999999999	35.972	0.00026843100189035914	288.6751345948129	288.6751345948129	288.6751345948129	0	0	1.0	-89.99963750135457	89.99963750135457								
	60	61	3.174	25.392	0.0001890359168241966	288.6751345948129	288.6751345948129	288.6751345948129	0	0	1.0	-89.99963750135457	89.99963750135457								
	63	69	3.174	25.921	0.00019470699432892253	288.6751345948129	288.6751345948129	288.6751345948129	0	0	1.0	-89.99963750135457	89.99963750135457								
	66	69	1.587	13.754	0.00010396975425330812	288.6751345948129	288.6751345948129	288.6751345948129	0	0	1.0	-89.99963750135457	89.99963750135457								
	68	71	1.587	11.638	8.695652173913041e-5	288.6751345948129	288.6751345948129	288.6751345948129	0	0	1.0	-89.99963750135457	89.99963750135457								
	19	20	2.645	21.16	0.0001568998109640832	288.6751345948129	288.6751345948129	288.6751345948129	0	0	1.0	-89.99963750135457	89.99963750135457								
	49	51	10.4742	40.18284	0.00029930686830497794	101.03629710818451	101.03629710818451	101.03629710818451	0	0	1.0	-89.99963750135457	89.99963750135457								
	29	34	4.38012	16.75872	0.00012602394454946442	101.03629710818451	101.03629710818451	101.03629710818451	0	0	1.0	-89.99963750135457	89.99963750135457								
	8	10	8.18892	31.422600000000003	0.00023629489603024578	101.03629710818451	101.03629710818451	101.03629710818451	0	0	1.0	-89.99963750135457	89.99963750135457								
	38	40	2.645	31.211	0.00015500945179584122	288.6751345948129	288.6751345948129	288.6751345948129	0	0	1.0	-89.99963750135457	89.99963750135457								
	67	68	2.645	21.16	0.0001568998109640832	288.6751345948129	288.6751345948129	288.6751345948129	0	0	1.0	-89.99963750135457	89.99963750135457								
	6	10	2.66616	11.61684	0.01291220331863054	101.03629710818451	101.03629710818451	101.03629710818451	0	0	1.0	-89.99963750135457	89.99963750135457								
	13	39	5.29	39.675	0.00029867674858223065	288.6751345948129	288.6751345948129	288.6751345948129	0	0	1.0	-89.99963750135457	89.99963750135457								
	40	43	1.587	12.167	9.262759924385635e-5	288.6751345948129	288.6751345948129	288.6751345948129	0	0	1.0	-89.99963750135457	89.99963750135457								
	49	50	0.57132	2.66616	0.0024207099348876287	101.03629710818451	101.03629710818451	101.03629710818451	0	0	1.0	-89.99963750135457	89.99963750135457								
	59	61	3.174	25.392	0.0001890359168241966	288.6751345948129	288.6751345948129	288.6751345948129	0	0	1.0	-89.99963750135457	89.99963750135457								
	60	71	6.348	51.313	0.00038374291115311906	288.6751345948129	288.6751345948129	288.6751345948129	0	0	1.0	-89.99963750135457	89.99963750135457								
	56	57	8.18892	31.422600000000003	0.00023629489603024578	101.03629710818451	101.03629710818451	101.03629710818451	0	0	1.0	-89.99963750135457	89.99963750135457								
	44	47	1.587	11.638	8.695652173913041e-5	288.6751345948129	288.6751345948129	288.6751345948129	0	0	1.0	-89.99963750135457	89.99963750135457								
	1	2	0.57132	2.66616	0.0024207099348876287	101.03629710818451	101.03629710818451	101.03629710818451	0	0	1.0	-89.99963750135457	89.99963750135457								
	65	66	1.058	7.406000000000001	5.671077504725896e-5	288.6751345948129	288.6751345948129	288.6751345948129	0	0	1.0	-89.99963750135457	89.99963750135457								
	15	24	3.7030000000000003	27.508	0.00020604914933837433	288.6751345948129	288.6751345948129	288.6751345948129	0	0	1.0	-89.99963750135457	89.99963750135457								
	50	52	6.2845200000000006	24.18588	0.00017853392144507457	101.03629710818451	101.03629710818451	101.03629710818451	0	0	1.0	-89.99963750135457	89.99963750135457								
	39	48	3.7030000000000003	27.508	0.00020604914933837433	288.6751345948129	288.6751345948129	288.6751345948129	0	0	1.0	-89.99963750135457	89.99963750135457								
	18	21	1.587	13.754	0.00010396975425330812	288.6751345948129	288.6751345948129	288.6751345948129	0	0	1.0	-89.99963750135457	89.99963750135457								
	36	37	3.174	25.392	0.0001890359168241966	288.6751345948129	288.6751345948129	288.6751345948129	0	0	1.0	-89.99963750135457	89.99963750135457								
	55	56	3.04704	11.61684	8.926696072253729e-5	101.03629710818451	101.03629710818451	101.03629710818451	0	0	1.0	-89.99963750135457	89.99963750135457								
	66	47	6.877	55.016	0.00041209829867674865	288.6751345948129	288.6751345948129	288.6751345948129	0	0	1.0	-89.99963750135457	89.99963750135457								
	13	23	5.819	46.022999999999996	0.0003440453686200378	288.6751345948129	288.6751345948129	288.6751345948129	0	0	1.0	-89.99963750135457	89.99963750135457								
	25	29	4.18968	16.1874	0.00012077294685990338	101.03629710818451	101.03629710818451	101.03629710818451	0	0	1.0	-89.99963750135457	89.99963750135457								
	23	41	5.29	39.146	0.00029300567107750475	288.6751345948129	288.6751345948129	288.6751345948129	0	0	1.0	-89.99963750135457	89.99963750135457								
	16	17	1.587	13.754	0.00010396975425330812	288.6751345948129	288.6751345948129	288.6751345948129	0	0	1.0	-89.99963750135457	89.99963750135457								
	26	30	9.522	36.56448	0.0002730518798571728	101.03629710818451	101.03629710818451	101.03629710818451	0	0	1.0	-89.99963750135457	89.99963750135457								
	35	37	3.174	25.392	0.0001890359168241966	288.6751345948129	288.6751345948129	288.6751345948129	0	0	1.0	-89.99963750135457	89.99963750135457								
	49	53	4.18968	16.1874	0.00012077294685990338	101.03629710818451	101.03629710818451	101.03629710818451	0	0	1.0	-89.99963750135457	89.99963750135457								
	17	18	1.058	7.406000000000001	5.671077504725896e-5	288.6751345948129	288.6751345948129	288.6751345948129	0	0	1.0	-89.99963750135457	89.99963750135457								
	25	26	0.57132	2.66616	0.0024207099348876287	101.03629710818451	101.03629710818451	101.03629710818451	0	0	1.0	-89.99963750135457	89.99963750135457								
	42	45	1.587	13.754	0.00010396975425330812	288.6751345948129	288.6751345948129	288.6751345948129	0	0	1.0	-89.99963750135457	89.99963750135457								
	43	44	2.645	21.16	0.0001568998109640832	288.6751345948129	288.6751345948129	288.6751345948129	0	0	1.0	-89.99963750135457	89.99963750135457								
	39	40	1.058	8.993	6.805293005671077e-5	288.6751345948129	288.6751345948129	288.6751345948129	0	0	1.0	-89.99963750135457	89.99963750135457								
	41	42	1.058	7.406000000000001	5.671077504725896e-5	288.6751345948129	288.6751345948129	288.6751345948129	0	0	1.0	-89.99963750135457	89.99963750135457								
	36	47	6.348	51.313	0.00038374291115311906	288.6751345948129	288.6751345948129	288.6751345948129	0	0	1.0	-89.99963750135457	89.99963750135457								
	61	71	5.819	46.022999999999996	0.0003440453686200378	288.6751345948129	288.6751345948129	288.6751345948129	0	0	1.0	-89.99963750135457	89.99963750135457								
	12	23	6.348	51.313	0.00038374291115311906	288.6751345948129	288.6751345948129	288.6751345948129	0	0	1.0	-89.99963750135457	89.99963750135457								
	54	58	2.66616	11.61684	0.01291220331863054	101.03629710818451	101.03629710818451	101.03629710818451	0	0	1.0	-89.99963750135457	89.99963750135457								
	14	16	2.645	31.211	0.00015500945179584122	288.6751345948129	288.6751345948129	288.6751345948129	0	0	1.0	-89.99963750135457	89.99963750135457								
	7	8	3.04704	11.61684	8.926696072253729e-5	101.03629710818451	101.03629710818451	101.03629710818451	0	0	1.0	-89.99963750135457	89.99963750135457								
	11	13	3.174	25.392	0.0001890359168241966	288.6751345948129	288.6751345948129	288.6751345948129	0	0	1.0	-89.99963750135457	89.99963750135457								
	20	23	1.587	11.638	8.695652173913041e-5	288.6751345948129	288.6751345948129	288.6751345948129	0	0	1.0	-89.99963750135457	89.99963750135457								
	2	6	9.522	36.56448	0.0002730518798571728	101.03629710818451	101.03629710818451	101.03629710818451	0	0	1.0	-89.99963750135457	89.99963750135457								
	20	23	1.587	11.638	8.695652173913041e-5	288.6751345948129	288.6751345948129	288.6751345948129	0	0	1.0	-89.99963750135457	89.99963750135457								
	45	46	4.760999999999999	35.972	0.00026843100189035914	288.6751345948129	288.6751345948129	288.6751345948129	0	0	1.0	-89.99963750135457	89.99963750135457								
	65	70	7.406000000000001	55.544999999999995	0.00041776937618147455	288.6751345948129	288.6751345948129	288.6751345948129	0	0	1.0	-89.99963750135457	89.99963750135457								
	66	69	1.587	13.754	0.00010396975425330812	288.6751345948129	288.6751345948129	288.6751345948129	0	0	1.0	-89.99963750135457	89.99963750135457								
	7	27	7.998480000000001	30.66084	0.00023104389834068472	101.03629710818451	101.03629710818451	101.03629710818451	0	0	1.0	-89.99963750135457	89.99963750135457								
	64	67	1.587	12.167	9.262759924385635e-5	288.6751345948129	288.6751345948129	288.6751345948129	0	0	1.0	-89.99963750135457	89.99963750135457								
	39	45	3.174	25.921	0.00019470699432892253	288.6751345948129	288.6751345948129	288.6751345948129	0	0	1.0	-89.99963750135457	89.99963750135457								
	17	22	7.406000000000001	55.544999999999995	0.00041776937618147455	288.6751345948129	288.6751345948129	288.6751345948129	0	0	1.0	-89.99963750135457	89.99963750135457								
	35	38	2.645	22.218	0.00016635160680529302	288.6751345948129	288.6751345948129	288.6751345948129	0	0	1.0	-89.99963750135457	89.99963750135457								
	41	46	7.406000000000001	55.544999999999995	0.00041776937618147455	288.6751345948129	288.6751345948129	288.6751345948129	0	0	1.0	-89.99963750135457	89.99963750135457								
	3	9	5.90364	22.66236	0.00016803192606595254	101.03629710818451	101.03629710818451	101.03629710818451	0	0	1.0	-89.99963750135457	89.99963750135457								
	15	21	3.174	25.921	0.00019470699432892253	288.6751345948129	288.6751345948129	288.6751345948129	0	0	1.0	-89.99963750135457	89.99963750135457								
	69	70	4.760999999999999	35.972	0.00026843100189035914	288.6751345948129	288.6751345948129	288.6751345948129	0	0	1.0	-89.99963750135457	89.99963750135457								
	24	3	0.008	0.336	0.0	0.4	0.4	0.4	1.0	0.0	1.0	-45.0	45.0								
	35	33	0.008	0.336	0.0	0.4	0.4	0.4	1.0	0.0	1.0	-45.0	45.0								
	59	58	0.008	0.336	0.0	0.4	0.4	0.4	1.0	0.0	1.0	-45.0	45.0								
	59	57	0.008	0.336	0.0	0.4	0.4	0.4	1.0	0.0	1.0	-45.0	45.0								
	12	9	0.008	0.336	0.0	0.4	0.4	0.4	1.0	0.0	1.0	-45.0	45.0								
	60	58	0.008	0.336	0.0	0.4	0.4	0.4	1.0	0.0	1.0	-45.0	45.0								
	11	9	0.008	0.336	0.0	0.4	0.4	0.4	1.0	0.0	1.0	-45.0	45.0								
	72	51	0.008	0.336	0.0	0.4	0.4	0.4	1.0	0.0	1.0	-45.0	45.0								
	35	34	0.008	0.336	0.0	0.4	0.4	0.4	1.0	0.0	1.0	-45.0	45.0								
	12	10	0.008	0.336	0.0	0.4	0.4	0.4	1.0	0.0	1.0	-45.0	45.0								
	36	34	0.008	0.336	0.0	0.4	0.4	0.4	1.0	0.0	1.0	-45.0	45.0								
	60	57	0.008	0.336	0.0	0.4	0.4	0.4	1.0	0.0	1.0	-45.0	45.0								
	48	27	0.008	0.336	0.0	0.4	0.4	0.4	1.0	0.0	1.0	-45.0	45.0								
	11	10	0.008	0.336	0.0	0.4	0.4	0.4	1.0	0.0	1.0	-45.0	45.0								
	36	33	0.008	0.336	0.0	0.4	0.4	0.4	1.0	0.0	1.0	-45.0	45.0								
];

%%-----  OPF Data  -----%%
%% cost data
%    1    startup    shutdown    n    x1    y1    ...    xn    yn
%    2    startup    shutdown    n    c(n-1)    ...    c0
mpc.gencost = [
	2	0.0	0.0	1	58.38461538461539
	2	0.0	0.0	1	58.38461538461539
	2	0.0	0.0	1	58.38461538461539
	2	0.0	0.0	1	58.38461538461539
	2	0.0	0.0	1	24.103448275862068
	2	0.0	0.0	1	24.103448275862068
	2	0.0	0.0	1	24.103448275862068
	2	0.0	0.0	1	24.103448275862068
	2	0.0	0.0	1	58.38461538461539
	2	0.0	0.0	1	47.2
	2	0.0	0.0	1	58.38461538461539
	2	0.0	0.0	1	24.103448275862068
	2	0.0	0.0	1	47.2
	2	0.0	0.0	1	47.2
	2	0.0	0.0	1	58.38461538461539
	2	0.0	0.0	1	47.2
	2	0.0	0.0	1	58.38461538461539
	2	0.0	0.0	1	58.38461538461539
	2	0.0	0.0	1	47.2
	2	0.0	0.0	1	24.103448275862068
	2	0.0	0.0	1	24.103448275862068
	2	0.0	0.0	1	58.38461538461539
	2	0.0	0.0	1	47.2
	2	0.0	0.0	1	58.38461538461539
	2	0.0	0.0	1	24.103448275862068
	2	0.0	0.0	1	58.38461538461539
	2	0.0	0.0	1	24.103448275862068
	2	0.0	0.0	1	47.2
	2	0.0	0.0	1	58.38461538461539
	2	0.0	0.0	1	16.902077151335313
	2	0.0	0.0	1	58.38461538461539
	2	0.0	0.0	1	58.38461538461539
	2	0.0	0.0	1	24.103448275862068
	2	0.0	0.0	1	58.38461538461539
	2	0.0	0.0	1	24.103448275862068
	2	0.0	0.0	1	58.38461538461539
	2	0.0	0.0	1	58.38461538461539
	2	0.0	0.0	1	58.38461538461539
	2	0.0	0.0	1	47.2
	2	0.0	0.0	1	58.38461538461539
	2	0.0	0.0	1	24.103448275862068
	2	0.0	0.0	1	58.38461538461539
	2	0.0	0.0	1	58.38461538461539
	2	0.0	0.0	1	58.38461538461539
	2	0.0	0.0	1	24.103448275862068
	2	0.0	0.0	1	47.2
	2	0.0	0.0	1	58.38461538461539
	2	0.0	0.0	1	24.103448275862068
	2	0.0	0.0	1	58.38461538461539
	2	0.0	0.0	1	47.2
	2	0.0	0.0	1	24.103448275862068
	2	0.0	0.0	1	58.38461538461539
	2	0.0	0.0	1	24.103448275862068
	2	0.0	0.0	1	0.0
	2	0.0	0.0	1	0.0
	2	0.0	0.0	1	0.0
	2	0.0	0.0	1	0.0
	2	0.0	0.0	1	0.0
	2	0.0	0.0	1	0.0
	2	0.0	0.0	1	0.0
	2	0.0	0.0	1	0.0
	2	0.0	0.0	1	0.0
	2	0.0	0.0	1	0.0
	2	0.0	0.0	1	0.0
	2	0.0	0.0	1	0.0
	2	0.0	0.0	1	0.0
	2	0.0	0.0	1	0.0
	2	0.0	0.0	1	0.0
	2	0.0	0.0	1	0.0
	2	0.0	0.0	1	0.0
	2	0.0	0.0	1	0.0
	2	0.0	0.0	1	0.0
	2	0.0	0.0	1	0.0
	2	0.0	0.0	1	0.0
	2	0.0	0.0	1	0.0
	2	0.0	0.0	1	0.0
	2	0.0	0.0	1	0.0
	2	0.0	0.0	1	2.3
	2	0.0	0.0	1	0.0
	2	0.0	0.0	1	0.0
	2	0.0	0.0	1	0.0
	2	0.0	0.0	1	0.0
	2	0.0	0.0	1	0.0
	2	0.0	0.0	1	0.0
	2	0.0	0.0	1	0.0
	2	0.0	0.0	1	0.0
	2	0.0	0.0	1	0.0
	2	0.0	0.0	1	0.0
	2	0.0	0.0	1	0.0
	2	0.0	0.0	1	0.0
	2	0.0	0.0	1	0.0
	2	0.0	0.0	1	0.0
	2	0.0	0.0	1	0.0
	2	0.0	0.0	1	0.0
	2	0.0	0.0	1	0.0
	2	0.0	0.0	1	0.0
	2	0.0	0.0	1	0.0
	2	0.0	0.0	1	0.0
	2	0.0	0.0	1	0.0
	2	0.0	0.0	1	0.0
	2	0.0	0.0	1	0.0
	2	0.0	0.0	1	0.0
	2	0.0	0.0	1	0.0
	2	0.0	0.0	1	0.0
	2	0.0	0.0	1	0.0
	2	0.0	0.0	1	2.3
	2	0.0	0.0	1	0.0
	2	0.0	0.0	1	0.0
	2	0.0	0.0	1	0.0
	2	0.0	0.0	1	0.0
	2	0.0	0.0	1	0.0
	2	0.0	0.0	1	0.0
	2	0.0	0.0	1	0.0
	2	0.0	0.0	1	0.0
	2	0.0	0.0	1	0.0
	2	0.0	0.0	1	0.0
	2	0.0	0.0	1	0.0
	2	0.0	0.0	1	0.0
	2	0.0	0.0	1	0.0
	2	0.0	0.0	1	0.0
	2	0.0	0.0	1	0.0
	2	0.0	0.0	1	0.0
	2	0.0	0.0	1	0.0
	2	0.0	0.0	1	0.0
	2	0.0	0.0	1	0.0
	2	0.0	0.0	1	0.0
	2	0.0	0.0	1	0.0
	2	0.0	0.0	1	0.0
	2	0.0	0.0	1	2.3
	2	0.0	0.0	1	0.0
	2	0.0	0.0	1	0.0
	2	0.0	0.0	1	0.0
	2	0.0	0.0	1	2.3
];

%% bus names
mpc.bus_name = {
	'buses_ABEL'
	'buses_ADAMS'
	'buses_ADLER'
	'buses_AGRICOLA'
	'buses_AIKEN'
	'buses_ALBER'
	'buses_ALDER'
	'buses_ALGER'
	'buses_ALI'
	'buses_ALLEN'
	'buses_ANNA'
	'buses_ARCHER'
	'buses_ARNE'
	'buses_ARNOLD'
	'buses_ARTHUR'
	'buses_ASSER'
	'buses_ASTON'
	'buses_ASTOR'
	'buses_ATTAR'
	'buses_ATTILA'
	'buses_ATTLEE'
	'buses_AUBREY'
	'buses_AUSTEN'
	'buses_AVERY'
	'buses_BACH'
	'buses_BACON'
	'buses_BAFFIN'
	'buses_BAILEY'
	'buses_BAIN'
	'buses_BAJER'
	'buses_BAKER'
	'buses_BALCH'
	'buses_BALZAC'
	'buses_BANKS'
	'buses_BARDEEN'
	'buses_BARKLA'
	'buses_BARLOW'
	'buses_BARRY'
	'buses_BARTON'
	'buses_BASOV'
	'buses_BATES'
	'buses_BAYLE'
	'buses_BEDE'
	'buses_BEETHOVEN'
	'buses_BEHRING'
	'buses_BELL'
	'buses_BLOCH'
	'buses_BORDET'
	'buses_CABELL'
	'buses_CABOT'
	'buses_CAESAR'
	'buses_CAINE'
	'buses_CALVIN'
	'buses_CAMUS'
	'buses_CAREW'
	'buses_CARREL'
	'buses_CARTER'
	'buses_CARUSO'
	'buses_CARY'
	'buses_CAXTON'
	'buses_CECIL'
	'buses_CHAIN'
	'buses_CHASE'
	'buses_CHIFA'
	'buses_CHUHSI'
	'buses_CLARK'
	'buses_CLAY'
	'buses_CLIVE'
	'buses_COBB'
	'buses_COLE'
	'buses_COMTE'
	'buses_CURIE'
	'buses_CURTISS'
};

%column_names% name fuel type 
mpc.gen_data = {
	'generators_207_CT_2'	'NATURAL_GAS'	'CT'
	'generators_113_CT_4'	'NATURAL_GAS'	'CT'
	'generators_307_CT_2'	'NATURAL_GAS'	'CT'
	'generators_302_CT_3'	'NATURAL_GAS'	'CT'
	'generators_116_STEAM_1'	'COAL'	'ST'
	'generators_223_STEAM_2'	'COAL'	'ST'
	'generators_101_STEAM_3'	'COAL'	'ST'
	'generators_115_STEAM_3'	'COAL'	'ST'
	'generators_322_CT_6'	'NATURAL_GAS'	'CT'
	'generators_321_CC_1'	'NATURAL_GAS'	'GT'
	'generators_302_CT_4'	'NATURAL_GAS'	'CT'
	'generators_216_STEAM_1'	'COAL'	'ST'
	'generators_218_CC_1'	'NATURAL_GAS'	'GT'
	'generators_213_CC_3'	'NATURAL_GAS'	'GT'
	'generators_315_CT_6'	'NATURAL_GAS'	'CT'
	'generators_221_CC_1'	'NATURAL_GAS'	'GT'
	'generators_223_CT_6'	'NATURAL_GAS'	'CT'
	'generators_213_CT_2'	'NATURAL_GAS'	'CT'
	'generators_323_CC_1'	'NATURAL_GAS'	'GT'
	'generators_123_STEAM_2'	'COAL'	'ST'
	'generators_201_STEAM_3'	'COAL'	'ST'
	'generators_123_CT_5'	'NATURAL_GAS'	'CT'
	'generators_313_CC_1'	'NATURAL_GAS'	'GT'
	'generators_123_CT_4'	'NATURAL_GAS'	'CT'
	'generators_102_STEAM_4'	'COAL'	'ST'
	'generators_315_CT_8'	'NATURAL_GAS'	'CT'
	'generators_102_STEAM_3'	'COAL'	'ST'
	'generators_323_CC_2'	'NATURAL_GAS'	'GT'
	'generators_113_CT_3'	'NATURAL_GAS'	'CT'
	'generators_121_NUCLEAR_1'	'NUCLEAR'	'ST'
	'generators_223_CT_5'	'NATURAL_GAS'	'CT'
	'generators_322_CT_5'	'NATURAL_GAS'	'CT'
	'generators_223_STEAM_1'	'COAL'	'ST'
	'generators_113_CT_2'	'NATURAL_GAS'	'CT'
	'generators_223_STEAM_3'	'COAL'	'ST'
	'generators_307_CT_1'	'NATURAL_GAS'	'CT'
	'generators_301_CT_4'	'NATURAL_GAS'	'CT'
	'generators_207_CT_1'	'NATURAL_GAS'	'CT'
	'generators_107_CC_1'	'NATURAL_GAS'	'GT'
	'generators_213_CT_1'	'NATURAL_GAS'	'CT'
	'generators_123_STEAM_3'	'COAL'	'ST'
	'generators_215_CT_4'	'NATURAL_GAS'	'CT'
	'generators_301_CT_3'	'NATURAL_GAS'	'CT'
	'generators_123_CT_1'	'NATURAL_GAS'	'CT'
	'generators_202_STEAM_3'	'COAL'	'ST'
	'generators_318_CC_1'	'NATURAL_GAS'	'GT'
	'generators_215_CT_5'	'NATURAL_GAS'	'CT'
	'generators_202_STEAM_4'	'COAL'	'ST'
	'generators_315_CT_7'	'NATURAL_GAS'	'CT'
	'generators_118_CC_1'	'NATURAL_GAS'	'GT'
	'generators_101_STEAM_4'	'COAL'	'ST'
	'generators_223_CT_4'	'NATURAL_GAS'	'CT'
	'generators_316_STEAM_1'	'COAL'	'ST'
	'generators_222_HYDRO_4'	NaN	'HY'
	'generators_322_HYDRO_1'	NaN	'HY'
	'generators_222_HYDRO_3'	NaN	'HY'
	'generators_122_HYDRO_1'	NaN	'HY'
	'generators_122_HYDRO_6'	NaN	'HY'
	'generators_122_HYDRO_2'	NaN	'HY'
	'generators_222_HYDRO_2'	NaN	'HY'
	'generators_222_HYDRO_5'	NaN	'HY'
	'generators_322_HYDRO_2'	NaN	'HY'
	'generators_201_HYDRO_4'	NaN	'HY'
	'generators_215_HYDRO_2'	NaN	'HY'
	'generators_122_HYDRO_5'	NaN	'HY'
	'generators_122_HYDRO_4'	NaN	'HY'
	'generators_322_HYDRO_3'	NaN	'HY'
	'generators_215_HYDRO_3'	NaN	'HY'
	'generators_122_HYDRO_3'	NaN	'HY'
	'generators_222_HYDRO_6'	NaN	'HY'
	'generators_215_HYDRO_1'	NaN	'HY'
	'generators_322_HYDRO_4'	NaN	'HY'
	'generators_222_HYDRO_1'	NaN	'HY'
	'generators_101_PV_4'	NaN	'PVe'
	'generators_320_RTPV_5'	NaN	'PVe'
	'generators_103_PV_1'	NaN	'PVe'
	'generators_314_PV_2'	NaN	'PVe'
	'generators_303_WIND_1'	NaN	'WT'
	'generators_312_PV_1'	NaN	'PVe'
	'generators_313_RTPV_3'	NaN	'PVe'
	'generators_320_RTPV_2'	NaN	'PVe'
	'generators_324_PV_1'	NaN	'PVe'
	'generators_313_PV_1'	NaN	'PVe'
	'generators_118_RTPV_5'	NaN	'PVe'
	'generators_118_RTPV_6'	NaN	'PVe'
	'generators_101_PV_2'	NaN	'PVe'
	'generators_313_RTPV_9'	NaN	'PVe'
	'generators_118_RTPV_7'	NaN	'PVe'
	'generators_313_RTPV_11'	NaN	'PVe'
	'generators_313_PV_2'	NaN	'PVe'
	'generators_313_RTPV_10'	NaN	'PVe'
	'generators_101_PV_1'	NaN	'PVe'
	'generators_118_RTPV_3'	NaN	'PVe'
	'generators_102_PV_2'	NaN	'PVe'
	'generators_113_PV_1'	NaN	'PVe'
	'generators_313_RTPV_7'	NaN	'PVe'
	'generators_320_RTPV_4'	NaN	'PVe'
	'generators_104_PV_1'	NaN	'PVe'
	'generators_213_RTPV_1'	NaN	'PVe'
	'generators_313_RTPV_12'	NaN	'PVe'
	'generators_215_PV_1'	NaN	'PVe'
	'generators_118_RTPV_10'	NaN	'PVe'
	'generators_313_RTPV_6'	NaN	'PVe'
	'generators_102_PV_1'	NaN	'PVe'
	'generators_118_RTPV_1'	NaN	'PVe'
	'generators_317_WIND_1'	NaN	'WT'
	'generators_118_RTPV_4'	NaN	'PVe'
	'generators_313_RTPV_5'	NaN	'PVe'
	'generators_119_PV_1'	NaN	'PVe'
	'generators_118_RTPV_2'	NaN	'PVe'
	'generators_313_RTPV_8'	NaN	'PVe'
	'generators_319_PV_1'	NaN	'PVe'
	'generators_314_PV_3'	NaN	'PVe'
	'generators_308_RTPV_1'	NaN	'PVe'
	'generators_313_RTPV_13'	NaN	'PVe'
	'generators_324_PV_2'	NaN	'PVe'
	'generators_313_RTPV_2'	NaN	'PVe'
	'generators_313_RTPV_1'	NaN	'PVe'
	'generators_310_PV_2'	NaN	'PVe'
	'generators_320_RTPV_6'	NaN	'PVe'
	'generators_310_PV_1'	NaN	'PVe'
	'generators_118_RTPV_8'	NaN	'PVe'
	'generators_314_PV_1'	NaN	'PVe'
	'generators_324_PV_3'	NaN	'PVe'
	'generators_313_RTPV_4'	NaN	'PVe'
	'generators_314_PV_4'	NaN	'PVe'
	'generators_118_RTPV_9'	NaN	'PVe'
	'generators_101_PV_3'	NaN	'PVe'
	'generators_309_WIND_1'	NaN	'WT'
	'generators_320_RTPV_1'	NaN	'PVe'
	'generators_320_PV_1'	NaN	'PVe'
	'generators_320_RTPV_3'	NaN	'PVe'
	'generators_122_WIND_1'	NaN	'WT'
};

%column_names% col_1 col_2 
mpc.areas = {
	1	1
};

